MODEL 1
REMARK minimizedAffinity -8.17493629
REMARK minimizedRMSD -1
REMARK  Name = 
REMARK  7 active torsions:
REMARK  status: ('A' for Active; 'I' for Inactive)
REMARK    1  A    between atoms: C_1  and  C_2
REMARK    2  A    between atoms: C_13  and  C_14
REMARK    3  A    between atoms: C_14  and  C_15
REMARK    4  A    between atoms: C_15  and  N_16
REMARK    5  A    between atoms: N_19  and  C_22
REMARK    6  A    between atoms: C_25  and  O_28
REMARK    7  A    between atoms: O_28  and  C_29
REMARK                            x       y       z     vdW  Elec       q    Type
REMARK                         _______ _______ _______ _____ _____    ______ ____
ROOT
ATOM      1  C   UNL     1      -1.985  -3.786  15.043  0.00  0.00    +0.000 C 
ENDROOT
BRANCH   1   2
ATOM      2  N   UNL     1      -0.989  -4.777  15.455  0.00  0.00    +0.000 NA
ATOM      3  C   UNL     1       0.151  -4.212  16.195  0.00  0.00    +0.000 C 
ATOM      4  C   UNL     1       1.355  -5.177  16.307  0.00  0.00    +0.000 C 
ATOM      5  N   UNL     1       1.862  -5.537  14.973  0.00  0.00    +0.000 N 
ATOM      6  C   UNL     1       0.886  -5.509  13.869  0.00  0.00    +0.000 C 
ATOM      7  C   UNL     1      -0.562  -5.697  14.385  0.00  0.00    +0.000 C 
BRANCH   5   8
ATOM      8  C   UNL     1       3.172  -5.932  14.773  0.00  0.00    +0.000 A 
ATOM      9  C   UNL     1       4.253  -5.247  15.347  0.00  0.00    +0.000 A 
ATOM     10  C   UNL     1       5.580  -5.648  15.142  0.00  0.00    +0.000 A 
ATOM     11  C   UNL     1       5.875  -6.754  14.351  0.00  0.00    +0.000 A 
ATOM     12  C   UNL     1       4.826  -7.453  13.766  0.00  0.00    +0.000 A 
ATOM     13  C   UNL     1       3.499  -7.043  13.978  0.00  0.00    +0.000 A 
BRANCH  11  14
ATOM     14  O   UNL     1       7.205  -7.040  14.228  0.00  0.00    +0.000 OA
ATOM     15  C   UNL     1       7.700  -8.128  14.999  0.00  0.00    +0.000 C 
ENDBRANCH  11  14
ENDBRANCH   5   8
ENDBRANCH   1   2
BRANCH   1  16
ATOM     16  C   UNL     1      -1.480  -2.640  14.152  0.00  0.00    +0.000 C 
BRANCH  16  29
ATOM     17  C   UNL     1      -2.569   0.661  13.031  0.00  0.00    +0.000 C 
ATOM     18  C   UNL     1      -1.501  -0.078  13.793  0.00  0.00    +0.000 C 
ATOM     19  C   UNL     1      -0.218   0.318  13.723  0.00  0.00    +0.000 C 
ATOM     20  C   UNL     1       0.932  -0.322  14.382  0.00  0.00    +0.000 C 
ATOM     21  O   UNL     1       2.014  -0.375  13.807  0.00  0.00    +0.000 OA
ATOM     22  O   UNL     1       0.772  -0.803  15.676  0.00  0.00    +0.000 OA
ATOM     23  C   UNL     1      -0.359  -0.791  16.536  0.00  0.00    +0.000 A 
ATOM     24  C   UNL     1      -0.071  -0.604  17.890  0.00  0.00    +0.000 A 
ATOM     25  C   UNL     1      -1.105  -0.615  18.821  0.00  0.00    +0.000 A 
ATOM     26  C   UNL     1      -2.416  -0.824  18.397  0.00  0.00    +0.000 A 
ATOM     27  C   UNL     1      -2.692  -1.027  17.042  0.00  0.00    +0.000 A 
ATOM     28  C   UNL     1      -1.662  -1.019  16.086  0.00  0.00    +0.000 A 
ATOM     29  C   UNL     1      -1.983  -1.253  14.626  0.00  0.00    +0.000 C 
ENDBRANCH  16  29
ENDBRANCH   1  16
TORSDOF 5
ENDMDL
