MODEL 1
REMARK minimizedAffinity -6.6634016
REMARK minimizedRMSD -1
REMARK  Name = 
REMARK  7 active torsions:
REMARK  status: ('A' for Active; 'I' for Inactive)
REMARK    1  A    between atoms: C_1  and  C_2
REMARK    2  A    between atoms: C_2  and  C_3
REMARK    3  A    between atoms: C_6  and  O_9
REMARK    4  A    between atoms: O_9  and  C_10
REMARK    5  A    between atoms: C_10  and  C_11
REMARK    6  A    between atoms: C_11  and  N_12
REMARK    7  A    between atoms: C_11  and  C_13
REMARK                            x       y       z     vdW  Elec       q    Type
REMARK                         _______ _______ _______ _____ _____    ______ ____
ROOT
ATOM      1  C   UNL     1      -0.246  -3.074  16.754  0.00  0.00    +0.000 C 
ENDROOT
BRANCH   1   2
ATOM      2  O   UNL     1      -0.232  -3.921  15.596  0.00  0.00    +0.000 OA
BRANCH   2   6
ATOM      3  C   UNL     1      -3.706  -4.838  13.456  0.00  0.00    +0.000 A 
ATOM      4  C   UNL     1      -2.706  -5.782  13.712  0.00  0.00    +0.000 A 
ATOM      5  C   UNL     1      -1.564  -5.426  14.434  0.00  0.00    +0.000 A 
ATOM      6  C   UNL     1      -1.398  -4.124  14.914  0.00  0.00    +0.000 A 
ATOM      7  C   UNL     1      -2.390  -3.178  14.662  0.00  0.00    +0.000 A 
ATOM      8  C   UNL     1      -3.536  -3.532  13.939  0.00  0.00    +0.000 A 
BRANCH   3  10
ATOM      9  C   UNL     1      -5.043  -6.723  12.475  0.00  0.00    +0.000 C 
ATOM     10  C   UNL     1      -4.940  -5.218  12.671  0.00  0.00    +0.000 C 
ATOM     11  F   UNL     1      -6.095  -4.808  13.276  0.00  0.00    +0.000 F 
ENDBRANCH   3  10
ENDBRANCH   2   6
ENDBRANCH   1   2
BRANCH   1  12
ATOM     12  C   UNL     1       0.611  -1.806  16.529  0.00  0.00    +0.000 C 
BRANCH  12  13
ATOM     13  C   UNL     1      -0.029  -0.888  15.505  0.00  0.00    +0.000 A 
ATOM     14  C   UNL     1      -1.175  -0.139  15.814  0.00  0.00    +0.000 A 
ATOM     15  C   UNL     1      -1.768   0.684  14.855  0.00  0.00    +0.000 A 
ATOM     16  C   UNL     1      -1.226   0.767  13.575  0.00  0.00    +0.000 A 
ATOM     17  C   UNL     1      -0.088   0.030  13.252  0.00  0.00    +0.000 A 
ATOM     18  C   UNL     1       0.507  -0.794  14.211  0.00  0.00    +0.000 A 
ENDBRANCH  12  13
BRANCH  12  19
ATOM     19  N   UNL     1       0.846  -1.095  17.798  0.00  0.00    +0.000 NA
ATOM     20  H   UNL     1       1.521  -0.350  17.631  0.00  0.00    +0.000 HD
ATOM     21  H   UNL     1       1.285  -1.749  18.446  0.00  0.00    +0.000 HD
ENDBRANCH  12  19
ENDBRANCH   1  12
TORSDOF 6
ENDMDL
