MODEL 1
REMARK minimizedAffinity -7.61592436
REMARK minimizedRMSD -1
REMARK  Name = 
REMARK  1 active torsions:
REMARK  status: ('A' for Active; 'I' for Inactive)
REMARK    1  A    between atoms: C_1  and  C_2
REMARK                            x       y       z     vdW  Elec       q    Type
REMARK                         _______ _______ _______ _____ _____    ______ ____
ROOT
ATOM      1  C   UNL     1       1.699  -0.761  15.888  0.00  0.00    +0.000 C 
ATOM      2  C   UNL     1       1.095  -1.780  16.865  0.00  0.00    +0.000 C 
ATOM      3  C   UNL     1       1.637  -3.254  16.747  0.00  0.00    +0.000 C 
ATOM      4  C   UNL     1       1.042  -4.093  15.655  0.00  0.00    +0.000 A 
ATOM      5  C   UNL     1       0.700  -3.531  14.500  0.00  0.00    +0.000 A 
ATOM      6  C   UNL     1      -0.691  -3.816  14.230  0.00  0.00    +0.000 A 
ATOM      7  C   UNL     1      -1.170  -5.105  14.358  0.00  0.00    +0.000 A 
ATOM      8  C   UNL     1      -0.330  -6.034  15.154  0.00  0.00    +0.000 A 
ATOM      9  O   UNL     1      -0.521  -7.242  15.165  0.00  0.00    +0.000 OA
ATOM     10  O   UNL     1       0.549  -5.386  16.009  0.00  0.00    +0.000 OA
ATOM     11  C   UNL     1      -2.493  -5.401  14.025  0.00  0.00    +0.000 A 
ATOM     12  C   UNL     1      -3.354  -4.354  13.675  0.00  0.00    +0.000 A 
ATOM     13  C   UNL     1      -2.925  -3.025  13.794  0.00  0.00    +0.000 A 
ATOM     14  C   UNL     1      -1.607  -2.770  14.168  0.00  0.00    +0.000 A 
ATOM     15  O   UNL     1      -1.208  -1.534  14.681  0.00  0.00    +0.000 OA
ATOM     16  C   UNL     1      -1.421  -1.430  16.060  0.00  0.00    +0.000 A 
ATOM     17  C   UNL     1      -2.738  -1.103  16.437  0.00  0.00    +0.000 A 
ATOM     18  C   UNL     1      -3.115  -1.049  17.776  0.00  0.00    +0.000 A 
ATOM     19  C   UNL     1      -2.174  -1.306  18.760  0.00  0.00    +0.000 A 
ATOM     20  C   UNL     1      -0.851  -1.576  18.406  0.00  0.00    +0.000 A 
ATOM     21  C   UNL     1      -0.424  -1.612  17.055  0.00  0.00    +0.000 A 
ENDROOT
TORSDOF 0
ENDMDL
