MODEL 1
REMARK minimizedAffinity -5.9066453
REMARK minimizedRMSD -1
REMARK  Name = 
REMARK  4 active torsions:
REMARK  status: ('A' for Active; 'I' for Inactive)
REMARK    1  A    between atoms: C_1  and  C_2
REMARK    2  A    between atoms: C_5  and  C_13
REMARK    3  A    between atoms: C_9  and  C_11
REMARK    4  A    between atoms: C_9  and  N_12
REMARK                            x       y       z     vdW  Elec       q    Type
REMARK                         _______ _______ _______ _____ _____    ______ ____
ROOT
ATOM      1  C   UNL     1      -2.314  -1.720  16.213  0.00  0.00    +0.000 C 
ATOM      2  C   UNL     1      -1.488  -2.867  15.585  0.00  0.00    +0.000 C 
ATOM      3  C   UNL     1      -0.923  -3.741  16.717  0.00  0.00    +0.000 C 
ATOM      4  C   UNL     1      -0.347  -5.085  16.258  0.00  0.00    +0.000 C 
ATOM      5  C   UNL     1      -0.433  -5.330  14.742  0.00  0.00    +0.000 C 
ATOM      6  C   UNL     1      -1.872  -5.050  14.262  0.00  0.00    +0.000 C 
ATOM      7  C   UNL     1      -2.444  -3.712  14.719  0.00  0.00    +0.000 C 
ATOM      8  C   UNL     1       0.583  -4.497  13.913  0.00  0.00    +0.000 C 
ATOM      9  C   UNL     1       0.849  -3.026  14.290  0.00  0.00    +0.000 C 
ATOM     10  C   UNL     1      -0.396  -2.211  14.696  0.00  0.00    +0.000 C 
ATOM     11  C   UNL     1       1.981  -2.899  15.335  0.00  0.00    +0.000 C 
ATOM     12  C   UNL     1      -0.130  -6.822  14.468  0.00  0.00    +0.000 C 
ENDROOT
BRANCH   9  13
ATOM     13  N   UNL     1       1.400  -2.375  13.075  0.00  0.00    +0.000 NA
ATOM     14  H   UNL     1       2.262  -2.840  12.792  0.00  0.00    +0.000 HD
ATOM     15  H   UNL     1       1.649  -1.408  13.281  0.00  0.00    +0.000 HD
ENDBRANCH   9  13
TORSDOF 1
ENDMDL
