MODEL 1
REMARK minimizedAffinity -7.01341581
REMARK minimizedRMSD -1
REMARK  Name = 
REMARK  8 active torsions:
REMARK  status: ('A' for Active; 'I' for Inactive)
REMARK    1  A    between atoms: C_1  and  C_2
REMARK    2  A    between atoms: C_2  and  O_3
REMARK    3  A    between atoms: O_3  and  C_4
REMARK    4  A    between atoms: C_4  and  C_6
REMARK    5  A    between atoms: C_7  and  C_25
REMARK    6  A    between atoms: N_10  and  C_11
REMARK    7  A    between atoms: C_14  and  C_15
REMARK    8  A    between atoms: C_16  and  C_17
REMARK                            x       y       z     vdW  Elec       q    Type
REMARK                         _______ _______ _______ _____ _____    ______ ____
ROOT
ATOM      1  C   UNL     1       2.072  -4.297  15.739  0.00  0.00    +0.000 A 
ATOM      2  C   UNL     1       3.035  -5.161  15.366  0.00  0.00    +0.000 A 
ATOM      3  C   UNL     1       2.702  -6.213  14.364  0.00  0.00    +0.000 A 
ATOM      4  O   UNL     1       3.324  -6.323  13.312  0.00  0.00    +0.000 OA
ATOM      5  N   UNL     1       1.734  -7.106  14.797  0.00  0.00    +0.000 N 
ATOM      6  C   UNL     1       1.923  -8.496  14.435  0.00  0.00    +0.000 C 
ATOM      7  C   UNL     1       0.456  -6.754  15.211  0.00  0.00    +0.000 A 
ATOM      8  O   UNL     1      -0.346  -7.571  15.666  0.00  0.00    +0.000 OA
ATOM      9  C   UNL     1      -0.019  -5.361  14.914  0.00  0.00    +0.000 A 
ATOM     10  C   UNL     1      -1.413  -5.379  14.329  0.00  0.00    +0.000 C 
ATOM     11  C   UNL     1       0.721  -4.253  15.161  0.00  0.00    +0.000 A 
ENDROOT
BRANCH  11  12
ATOM     12  C   UNL     1       0.133  -2.924  14.827  0.00  0.00    +0.000 A 
ATOM     13  C   UNL     1       0.482  -2.345  13.594  0.00  0.00    +0.000 A 
ATOM     14  C   UNL     1      -0.018  -1.093  13.231  0.00  0.00    +0.000 A 
ATOM     15  C   UNL     1      -0.866  -0.407  14.098  0.00  0.00    +0.000 A 
ATOM     16 CL   UNL     1      -1.481   1.134  13.646  0.00  0.00    +0.000 Cl
ATOM     17  C   UNL     1      -1.220  -0.959  15.327  0.00  0.00    +0.000 A 
ATOM     18  C   UNL     1      -0.719  -2.211  15.693  0.00  0.00    +0.000 A 
ATOM     19 CL   UNL     1      -1.190  -2.840  17.233  0.00  0.00    +0.000 Cl
ENDBRANCH  11  12
BRANCH   2  20
ATOM     20  C   UNL     1       4.366  -5.143  15.890  0.00  0.00    +0.000 A 
ATOM     21  C   UNL     1       5.587  -5.093  15.219  0.00  0.00    +0.000 A 
ATOM     22  C   UNL     1       6.623  -5.117  16.181  0.00  0.00    +0.000 A 
ATOM     23  C   UNL     1       6.000  -5.191  17.398  0.00  0.00    +0.000 A 
ATOM     24  O   UNL     1       4.656  -5.214  17.237  0.00  0.00    +0.000 OA
ENDBRANCH   2  20
BRANCH   1  25
ATOM     25  C   UNL     1       2.432  -3.214  16.692  0.00  0.00    +0.000 C 
ATOM     26  O   UNL     1       2.173  -3.237  17.884  0.00  0.00    +0.000 OA
BRANCH  25  27
ATOM     27  O   UNL     1       3.138  -2.271  16.019  0.00  0.00    +0.000 OA
BRANCH  27  29
ATOM     28  C   UNL     1       2.993  -0.029  15.104  0.00  0.00    +0.000 C 
ATOM     29  C   UNL     1       2.800  -0.912  16.323  0.00  0.00    +0.000 C 
ENDBRANCH  27  29
ENDBRANCH  25  27
ENDBRANCH   1  25
TORSDOF 5
ENDMDL
