MODEL 1
REMARK minimizedAffinity -5.65848875
REMARK minimizedRMSD -1
REMARK  Name = 
REMARK  6 active torsions:
REMARK  status: ('A' for Active; 'I' for Inactive)
REMARK    1  A    between atoms: C_1  and  C_2
REMARK    2  A    between atoms: C_2  and  C_3
REMARK    3  A    between atoms: C_2  and  N_4
REMARK    4  A    between atoms: N_4  and  C_5
REMARK    5  A    between atoms: C_5  and  C_6
REMARK    6  A    between atoms: C_7  and  C_8
REMARK                            x       y       z     vdW  Elec       q    Type
REMARK                         _______ _______ _______ _____ _____    ______ ____
ROOT
ATOM      1  C   UNL     1      -2.435   2.008  13.573  0.00  0.00    +0.000 C 
ATOM      2  C   UNL     1      -1.934   0.924  13.700  0.00  0.00    +0.000 C 
ENDROOT
BRANCH   2   3
ATOM      3  C   UNL     1      -1.342  -0.370  13.839  0.00  0.00    +0.000 A 
ATOM      4  C   UNL     1      -0.008  -0.574  13.473  0.00  0.00    +0.000 A 
ATOM      5  C   UNL     1       0.567  -1.839  13.610  0.00  0.00    +0.000 A 
ATOM      6  C   UNL     1      -0.196  -2.888  14.113  0.00  0.00    +0.000 A 
ATOM      7  C   UNL     1      -1.522  -2.697  14.481  0.00  0.00    +0.000 A 
ATOM      8  C   UNL     1      -2.100  -1.433  14.344  0.00  0.00    +0.000 A 
ATOM      9  F   UNL     1       0.357  -4.100  14.245  0.00  0.00    +0.000 F 
ENDBRANCH   2   3
BRANCH   1  10
ATOM     10  C   UNL     1      -3.049   3.333  13.417  0.00  0.00    +0.000 C 
BRANCH  10  11
ATOM     11  N   UNL     1      -2.352   4.070  12.365  0.00  0.00    +0.000 NA
ATOM     12  H   UNL     1      -2.974   4.807  12.033  0.00  0.00    +0.000 HD
BRANCH  11  14
ATOM     13  C   UNL     1      -1.029   6.109  12.310  0.00  0.00    +0.000 C 
ATOM     14  C   UNL     1      -1.091   4.668  12.823  0.00  0.00    +0.000 C 
ATOM     15  C   UNL     1       0.128   3.892  12.323  0.00  0.00    +0.000 C 
ENDBRANCH  11  14
ENDBRANCH  10  11
ENDBRANCH   1  10
TORSDOF 4
ENDMDL
