MODEL 1
REMARK minimizedAffinity -6.39035845
REMARK minimizedRMSD -1
REMARK  Name = 
REMARK  2 active torsions:
REMARK  status: ('A' for Active; 'I' for Inactive)
REMARK    1  A    between atoms: N_5  and  C_6
REMARK    2  A    between atoms: C_14  and  S_16
REMARK                            x       y       z     vdW  Elec       q    Type
REMARK                         _______ _______ _______ _____ _____    ______ ____
ROOT
ATOM      1  N   UNL     1      -0.465  -7.140  14.746  0.00  0.00    +0.000 N 
ATOM      2  C   UNL     1      -1.395  -6.171  14.432  0.00  0.00    +0.000 A 
ATOM      3  N   UNL     1      -1.186  -4.952  14.900  0.00  0.00    +0.000 NA
ATOM      4  C   UNL     1      -2.096  -4.037  14.589  0.00  0.00    +0.000 A 
ATOM      5  N   UNL     1      -1.985  -2.718  15.019  0.00  0.00    +0.000 N 
ATOM      6  N   UNL     1      -3.180  -4.300  13.868  0.00  0.00    +0.000 NA
ATOM      7  C   UNL     1      -3.294  -5.560  13.464  0.00  0.00    +0.000 A 
ATOM      8  N   UNL     1      -2.439  -6.539  13.720  0.00  0.00    +0.000 NA
ATOM      9  H   UNL     1       0.036  -6.900  15.590  0.00  0.00    +0.000 HD
ATOM     10  H   UNL     1      -0.878  -8.062  14.696  0.00  0.00    +0.000 HD
ATOM     11  H   UNL     1      -2.783  -2.179  14.707  0.00  0.00    +0.000 HD
ENDROOT
BRANCH   5  12
ATOM     12  C   UNL     1      -1.024  -1.993  15.743  0.00  0.00    +0.000 A 
ATOM     13  C   UNL     1      -1.135  -1.725  17.113  0.00  0.00    +0.000 A 
ATOM     14  C   UNL     1      -0.156  -0.988  17.792  0.00  0.00    +0.000 A 
ATOM     15  C   UNL     1       0.954  -0.498  17.112  0.00  0.00    +0.000 A 
ATOM     16  C   UNL     1       1.090  -0.745  15.750  0.00  0.00    +0.000 A 
ATOM     17  C   UNL     1       0.111  -1.483  15.077  0.00  0.00    +0.000 A 
ATOM     18 CL   UNL     1       0.334  -1.760  13.379  0.00  0.00    +0.000 Cl
ENDBRANCH   5  12
BRANCH   7  19
ATOM     19  S   UNL     1      -4.728  -5.957  12.506  0.00  0.00    +0.000 S 
ATOM     20  H   UNL     1      -5.205  -4.707  12.531  0.00  0.00    +0.000 HD
ENDBRANCH   7  19
TORSDOF 2
ENDMDL
