MODEL 1
REMARK minimizedAffinity -6.10426998
REMARK minimizedRMSD -1
REMARK  Name = 
REMARK  5 active torsions:
REMARK  status: ('A' for Active; 'I' for Inactive)
REMARK    1  A    between atoms: C_1  and  C_2
REMARK    2  A    between atoms: C_2  and  O_3
REMARK    3  A    between atoms: O_3  and  C_4
REMARK    4  A    between atoms: N_6  and  C_7
REMARK    5  A    between atoms: N_6  and  C_8
REMARK                            x       y       z     vdW  Elec       q    Type
REMARK                         _______ _______ _______ _____ _____    ______ ____
ROOT
ATOM      1  C   UNL     1      -1.321  -4.126  14.765  0.00  0.00    +0.000 C 
ATOM      2  C   UNL     1      -2.482  -3.111  14.752  0.00  0.00    +0.000 C 
ATOM      3  C   UNL     1      -1.722  -1.880  14.441  0.00  0.00    +0.000 A 
ATOM      4  C   UNL     1      -2.130  -0.559  14.475  0.00  0.00    +0.000 A 
ATOM      5  C   UNL     1      -1.218   0.422  14.073  0.00  0.00    +0.000 A 
ATOM      6  C   UNL     1       0.069   0.067  13.634  0.00  0.00    +0.000 A 
ATOM      7  C   UNL     1       0.461  -1.273  13.596  0.00  0.00    +0.000 A 
ATOM      8  C   UNL     1      -0.450  -2.223  14.010  0.00  0.00    +0.000 A 
ATOM      9  O   UNL     1      -0.206  -3.571  14.017  0.00  0.00    +0.000 OA
ENDROOT
BRANCH   1  12
ATOM     10  C   UNL     1      -0.919  -6.544  14.441  0.00  0.00    +0.000 C 
ATOM     11  O   UNL     1      -1.232  -7.680  14.107  0.00  0.00    +0.000 OA
ATOM     12  N   UNL     1      -1.700  -5.425  14.221  0.00  0.00    +0.000 N 
ATOM     13  C   UNL     1      -3.029  -5.582  13.660  0.00  0.00    +0.000 C 
BRANCH  10  14
ATOM     14  O   UNL     1       0.240  -6.243  15.090  0.00  0.00    +0.000 OA
BRANCH  14  16
ATOM     15  C   UNL     1       2.585  -5.719  14.797  0.00  0.00    +0.000 C 
ATOM     16  C   UNL     1       1.452  -6.665  14.446  0.00  0.00    +0.000 C 
ENDBRANCH  14  16
ENDBRANCH  10  14
ENDBRANCH   1  12
TORSDOF 3
ENDMDL
