MODEL 1
REMARK minimizedAffinity -5.44209194
REMARK minimizedRMSD -1
REMARK  Name = 
REMARK  6 active torsions:
REMARK  status: ('A' for Active; 'I' for Inactive)
REMARK    1  A    between atoms: C_1  and  C_2
REMARK    2  A    between atoms: C_2  and  C_3
REMARK    3  A    between atoms: C_2  and  N_4
REMARK    4  A    between atoms: N_4  and  C_5
REMARK    5  A    between atoms: C_5  and  C_6
REMARK    6  A    between atoms: C_7  and  C_8
REMARK                            x       y       z     vdW  Elec       q    Type
REMARK                         _______ _______ _______ _____ _____    ______ ____
ROOT
ATOM      1  C   UNL     1      -2.433   2.011  13.555  0.00  0.00    +0.000 C 
ATOM      2  C   UNL     1      -1.943   0.922  13.682  0.00  0.00    +0.000 C 
ENDROOT
BRANCH   2   3
ATOM      3  C   UNL     1      -1.351  -0.371  13.838  0.00  0.00    +0.000 A 
ATOM      4  C   UNL     1      -2.101  -1.428  14.358  0.00  0.00    +0.000 A 
ATOM      5  C   UNL     1      -1.520  -2.689  14.509  0.00  0.00    +0.000 A 
ATOM      6  C   UNL     1      -0.190  -2.894  14.140  0.00  0.00    +0.000 A 
ATOM      7  C   UNL     1       0.560  -1.840  13.619  0.00  0.00    +0.000 A 
ATOM      8  C   UNL     1      -0.020  -0.579  13.468  0.00  0.00    +0.000 A 
ENDBRANCH   2   3
BRANCH   1   9
ATOM      9  C   UNL     1      -3.032   3.342  13.399  0.00  0.00    +0.000 C 
BRANCH   9  10
ATOM     10  N   UNL     1      -2.324   4.075  12.353  0.00  0.00    +0.000 NA
ATOM     11  H   UNL     1      -2.946   4.806  12.006  0.00  0.00    +0.000 HD
BRANCH  10  13
ATOM     12  C   UNL     1       0.158   3.929  12.319  0.00  0.00    +0.000 C 
ATOM     13  C   UNL     1      -1.074   4.684  12.824  0.00  0.00    +0.000 C 
ATOM     14  C   UNL     1      -1.026   6.132  12.329  0.00  0.00    +0.000 C 
ENDBRANCH  10  13
ENDBRANCH   9  10
ENDBRANCH   1   9
TORSDOF 4
ENDMDL
