MODEL 1
REMARK minimizedAffinity -6.56182909
REMARK minimizedRMSD -1
REMARK  Name = 
REMARK  2 active torsions:
REMARK  status: ('A' for Active; 'I' for Inactive)
REMARK    1  A    between atoms: C_8  and  N_9
REMARK    2  A    between atoms: N_9  and  C_10
REMARK                            x       y       z     vdW  Elec       q    Type
REMARK                         _______ _______ _______ _____ _____    ______ ____
ROOT
ATOM      1 CL   UNL     1      -4.046  -6.354  13.251  0.00  0.00    +0.000 Cl
ATOM      2  C   UNL     1      -3.089  -4.998  13.706  0.00  0.00    +0.000 A 
ATOM      3  C   UNL     1      -3.647  -3.726  13.700  0.00  0.00    +0.000 A 
ATOM      4  C   UNL     1      -2.871  -2.635  14.087  0.00  0.00    +0.000 A 
ATOM      5  C   UNL     1      -1.532  -2.808  14.479  0.00  0.00    +0.000 A 
ATOM      6  C   UNL     1      -0.946  -4.091  14.439  0.00  0.00    +0.000 A 
ATOM      7  C   UNL     1      -1.758  -5.185  14.080  0.00  0.00    +0.000 A 
ATOM      8  C   UNL     1       0.513  -4.312  14.848  0.00  0.00    +0.000 C 
ATOM      9  C   UNL     1       1.301  -2.991  15.086  0.00  0.00    +0.000 C 
ATOM     10 CL   UNL     1       2.773  -3.286  16.076  0.00  0.00    +0.000 Cl
ATOM     11  C   UNL     1       0.439  -1.949  15.790  0.00  0.00    +0.000 C 
ATOM     12  C   UNL     1      -0.748  -1.592  14.905  0.00  0.00    +0.000 C 
ENDROOT
BRANCH   8  13
ATOM     13  N   UNL     1       1.238  -5.246  13.957  0.00  0.00    +0.000 NA
ATOM     14  H   UNL     1       1.913  -4.731  13.398  0.00  0.00    +0.000 HD
BRANCH  13  15
ATOM     15  C   UNL     1       1.871  -6.389  14.627  0.00  0.00    +0.000 C 
ATOM     16  C   UNL     1       3.186  -6.774  13.938  0.00  0.00    +0.000 C 
ATOM     17  C   UNL     1       2.772  -7.539  12.683  0.00  0.00    +0.000 C 
ATOM     18  C   UNL     1       1.385  -8.109  12.982  0.00  0.00    +0.000 C 
ATOM     19  C   UNL     1       1.047  -7.659  14.402  0.00  0.00    +0.000 C 
ENDBRANCH  13  15
ENDBRANCH   8  13
TORSDOF 2
ENDMDL
