
     RDKit          3D

 57 60  0  0  0  0  0  0  0  0999 V2000
   -5.1617   -2.3210    0.0939 C   0  0  0  0  0  0  0  0  0  0  0  0
   -4.2731   -1.2617   -0.5029 C   0  0  0  0  0  0  0  0  0  0  0  0
   -4.1968   -1.1112   -1.8375 C   0  0  0  0  0  0  0  0  0  0  0  0
   -3.3528   -0.1480   -2.5617 C   0  0  0  0  0  0  0  0  0  0  0  0
   -2.8308   -0.4705   -3.6243 O   0  0  0  0  0  0  0  0  0  0  0  0
   -3.2159    1.1355   -2.0440 O   0  0  0  0  0  0  0  0  0  0  0  0
   -3.7716    1.7283   -0.8795 C   0  0  0  0  0  0  0  0  0  0  0  0
   -4.1130    3.0766   -1.0080 C   0  0  0  0  0  0  0  0  0  0  0  0
   -4.6300    3.7631    0.0870 C   0  0  0  0  0  0  0  0  0  0  0  0
   -4.7910    3.1034    1.3035 C   0  0  0  0  0  0  0  0  0  0  0  0
   -4.4310    1.7582    1.4268 C   0  0  0  0  0  0  0  0  0  0  0  0
   -3.9082    1.0482    0.3327 C   0  0  0  0  0  0  0  0  0  0  0  0
   -3.5128   -0.4040    0.4929 C   0  0  0  0  0  0  0  0  0  0  0  0
   -1.9742   -0.5775    0.4636 C   0  0  0  0  0  0  0  0  0  0  0  0
   -1.5371   -2.0128    0.8034 C   0  0  0  0  0  0  0  0  0  0  0  0
   -0.0965   -2.2761    0.7800 N   0  0  0  0  0  0  0  0  0  0  0  0
    0.6498   -1.6336    1.8744 C   0  0  0  0  0  0  0  0  0  0  0  0
    2.1800   -1.6082    1.6475 C   0  0  0  0  0  0  0  0  0  0  0  0
    2.5128   -0.8630    0.4225 N   0  0  0  0  0  0  0  0  0  0  0  0
    1.4891   -0.8466   -0.6366 C   0  0  0  0  0  0  0  0  0  0  0  0
    0.5433   -2.0680   -0.5325 C   0  0  0  0  0  0  0  0  0  0  0  0
    3.7433   -0.2526    0.2515 C   0  0  0  0  0  0  0  0  0  0  0  0
    4.8600   -0.5989    1.0259 C   0  0  0  0  0  0  0  0  0  0  0  0
    6.1050    0.0218    0.8525 C   0  0  0  0  0  0  0  0  0  0  0  0
    6.2769    1.0165   -0.1050 C   0  0  0  0  0  0  0  0  0  0  0  0
    5.1879    1.3830   -0.8866 C   0  0  0  0  0  0  0  0  0  0  0  0
    3.9450    0.7542   -0.7062 C   0  0  0  0  0  0  0  0  0  0  0  0
    7.5364    1.5416   -0.1736 O   0  0  0  0  0  0  0  0  0  0  0  0
    7.7564    2.5518   -1.1498 C   0  0  0  0  0  0  0  0  0  0  0  0
   -5.6804   -2.9072   -0.6720 H   0  0  0  0  0  0  0  0  0  0  0  0
   -4.5720   -3.0157    0.7005 H   0  0  0  0  0  0  0  0  0  0  0  0
   -5.9233   -1.8605    0.7317 H   0  0  0  0  0  0  0  0  0  0  0  0
   -4.7255   -1.7887   -2.5017 H   0  0  0  0  0  0  0  0  0  0  0  0
   -3.9759    3.5874   -1.9572 H   0  0  0  0  0  0  0  0  0  0  0  0
   -4.9025    4.8111   -0.0061 H   0  0  0  0  0  0  0  0  0  0  0  0
   -5.1926    3.6382    2.1610 H   0  0  0  0  0  0  0  0  0  0  0  0
   -4.5601    1.2703    2.3909 H   0  0  0  0  0  0  0  0  0  0  0  0
   -3.8324   -0.7155    1.4983 H   0  0  0  0  0  0  0  0  0  0  0  0
   -1.5387    0.1204    1.1892 H   0  0  0  0  0  0  0  0  0  0  0  0
   -1.5701   -0.2864   -0.5110 H   0  0  0  0  0  0  0  0  0  0  0  0
   -2.0089   -2.7145    0.1050 H   0  0  0  0  0  0  0  0  0  0  0  0
   -1.9281   -2.2836    1.7926 H   0  0  0  0  0  0  0  0  0  0  0  0
    0.4390   -2.1686    2.8076 H   0  0  0  0  0  0  0  0  0  0  0  0
    0.3243   -0.5966    2.0166 H   0  0  0  0  0  0  0  0  0  0  0  0
    2.5685   -2.6314    1.5757 H   0  0  0  0  0  0  0  0  0  0  0  0
    2.6303   -1.1324    2.5271 H   0  0  0  0  0  0  0  0  0  0  0  0
    0.9105    0.0818   -0.5654 H   0  0  0  0  0  0  0  0  0  0  0  0
    1.9549   -0.8826   -1.6289 H   0  0  0  0  0  0  0  0  0  0  0  0
    1.1417   -2.9672   -0.7316 H   0  0  0  0  0  0  0  0  0  0  0  0
   -0.1963   -2.0297   -1.3418 H   0  0  0  0  0  0  0  0  0  0  0  0
    4.7944   -1.3840    1.7733 H   0  0  0  0  0  0  0  0  0  0  0  0
    6.9455   -0.2829    1.4706 H   0  0  0  0  0  0  0  0  0  0  0  0
    5.2590    2.1555   -1.6442 H   0  0  0  0  0  0  0  0  0  0  0  0
    3.1208    1.0937   -1.3276 H   0  0  0  0  0  0  0  0  0  0  0  0
    8.8044    2.8593   -1.0823 H   0  0  0  0  0  0  0  0  0  0  0  0
    7.1376    3.4334   -0.9519 H   0  0  0  0  0  0  0  0  0  0  0  0
    7.5866    2.1679   -2.1612 H   0  0  0  0  0  0  0  0  0  0  0  0
  1  2  1  0
  2  3  2  0
  3  4  1  0
  4  5  2  0
  4  6  1  0
  6  7  1  0
  7  8  2  0
  8  9  1  0
  9 10  2  0
 10 11  1  0
 11 12  2  0
 12 13  1  0
 13 14  1  0
 14 15  1  0
 15 16  1  0
 16 17  1  0
 17 18  1  0
 18 19  1  0
 19 20  1  0
 20 21  1  0
 19 22  1  0
 22 23  2  0
 23 24  1  0
 24 25  2  0
 25 26  1  0
 26 27  2  0
 25 28  1  0
 28 29  1  0
 13  2  1  0
 12  7  1  0
 21 16  1  0
 27 22  1  0
  1 30  1  0
  1 31  1  0
  1 32  1  0
  3 33  1  0
  8 34  1  0
  9 35  1  0
 10 36  1  0
 11 37  1  0
 13 38  1  0
 14 39  1  0
 14 40  1  0
 15 41  1  0
 15 42  1  0
 17 43  1  0
 17 44  1  0
 18 45  1  0
 18 46  1  0
 20 47  1  0
 20 48  1  0
 21 49  1  0
 21 50  1  0
 23 51  1  0
 24 52  1  0
 26 53  1  0
 27 54  1  0
 29 55  1  0
 29 56  1  0
 29 57  1  0
M  END
$$$$
