REMARK  Name = 
REMARK  7 active torsions:
REMARK  status: ('A' for Active; 'I' for Inactive)
REMARK    1  A    between atoms: C_1  and  C_2
REMARK    2  A    between atoms: C_13  and  C_14
REMARK    3  A    between atoms: C_14  and  C_15
REMARK    4  A    between atoms: C_15  and  N_16
REMARK    5  A    between atoms: N_19  and  C_22
REMARK    6  A    between atoms: C_25  and  O_28
REMARK    7  A    between atoms: O_28  and  C_29
REMARK                            x       y       z     vdW  Elec       q    Type
REMARK                         _______ _______ _______ _____ _____    ______ ____
ROOT
ATOM      1  C   UNL     1      -1.537  -2.013   0.803  0.00  0.00    +0.000 C 
ENDROOT
BRANCH   1   2
ATOM      2  N   UNL     1      -0.097  -2.276   0.780  0.00  0.00    +0.000 NA
ATOM      3  C   UNL     1       0.650  -1.634   1.874  0.00  0.00    +0.000 C 
ATOM      4  C   UNL     1       2.180  -1.608   1.647  0.00  0.00    +0.000 C 
ATOM      5  N   UNL     1       2.513  -0.863   0.422  0.00  0.00    +0.000 N 
ATOM      6  C   UNL     1       1.489  -0.847  -0.637  0.00  0.00    +0.000 C 
ATOM      7  C   UNL     1       0.543  -2.068  -0.532  0.00  0.00    +0.000 C 
BRANCH   5   8
ATOM      8  C   UNL     1       3.743  -0.253   0.252  0.00  0.00    +0.000 A 
ATOM      9  C   UNL     1       4.860  -0.599   1.026  0.00  0.00    +0.000 A 
ATOM     10  C   UNL     1       6.105   0.022   0.853  0.00  0.00    +0.000 A 
ATOM     11  C   UNL     1       6.277   1.016  -0.105  0.00  0.00    +0.000 A 
ATOM     12  C   UNL     1       5.188   1.383  -0.887  0.00  0.00    +0.000 A 
ATOM     13  C   UNL     1       3.945   0.754  -0.706  0.00  0.00    +0.000 A 
BRANCH  11  14
ATOM     14  O   UNL     1       7.536   1.542  -0.174  0.00  0.00    +0.000 OA
ATOM     15  C   UNL     1       7.756   2.552  -1.150  0.00  0.00    +0.000 C 
ENDBRANCH  11  14
ENDBRANCH   5   8
ENDBRANCH   1   2
BRANCH   1  16
ATOM     16  C   UNL     1      -1.974  -0.578   0.464  0.00  0.00    +0.000 C 
BRANCH  16  29
ATOM     17  C   UNL     1      -5.162  -2.321   0.094  0.00  0.00    +0.000 C 
ATOM     18  C   UNL     1      -4.273  -1.262  -0.503  0.00  0.00    +0.000 C 
ATOM     19  C   UNL     1      -4.197  -1.111  -1.837  0.00  0.00    +0.000 C 
ATOM     20  C   UNL     1      -3.353  -0.148  -2.562  0.00  0.00    +0.000 C 
ATOM     21  O   UNL     1      -2.831  -0.470  -3.624  0.00  0.00    +0.000 OA
ATOM     22  O   UNL     1      -3.216   1.135  -2.044  0.00  0.00    +0.000 OA
ATOM     23  C   UNL     1      -3.772   1.728  -0.879  0.00  0.00    +0.000 A 
ATOM     24  C   UNL     1      -4.113   3.077  -1.008  0.00  0.00    +0.000 A 
ATOM     25  C   UNL     1      -4.630   3.763   0.087  0.00  0.00    +0.000 A 
ATOM     26  C   UNL     1      -4.791   3.103   1.304  0.00  0.00    +0.000 A 
ATOM     27  C   UNL     1      -4.431   1.758   1.427  0.00  0.00    +0.000 A 
ATOM     28  C   UNL     1      -3.908   1.048   0.333  0.00  0.00    +0.000 A 
ATOM     29  C   UNL     1      -3.513  -0.404   0.493  0.00  0.00    +0.000 C 
ENDBRANCH  16  29
ENDBRANCH   1  16
TORSDOF 5
