REMARK  Name = 
REMARK  7 active torsions:
REMARK  status: ('A' for Active; 'I' for Inactive)
REMARK    1  A    between atoms: C_1  and  C_2
REMARK    2  A    between atoms: C_2  and  C_3
REMARK    3  A    between atoms: C_6  and  O_9
REMARK    4  A    between atoms: O_9  and  C_10
REMARK    5  A    between atoms: C_10  and  C_11
REMARK    6  A    between atoms: C_11  and  N_12
REMARK    7  A    between atoms: C_11  and  C_13
REMARK                            x       y       z     vdW  Elec       q    Type
REMARK                         _______ _______ _______ _____ _____    ______ ____
ROOT
ATOM      1  C   UNL     1       1.238   0.517   1.580  0.00  0.00    +0.000 C 
ENDROOT
BRANCH   1   2
ATOM      2  O   UNL     1      -0.052   0.243   2.144  0.00  0.00    +0.000 OA
BRANCH   2   6
ATOM      3  C   UNL     1      -3.612   0.570  -0.026  0.00  0.00    +0.000 A 
ATOM      4  C   UNL     1      -3.580   0.181   1.317  0.00  0.00    +0.000 A 
ATOM      5  C   UNL     1      -2.364   0.089   1.999  0.00  0.00    +0.000 A 
ATOM      6  C   UNL     1      -1.159   0.382   1.356  0.00  0.00    +0.000 A 
ATOM      7  C   UNL     1      -1.183   0.770   0.017  0.00  0.00    +0.000 A 
ATOM      8  C   UNL     1      -2.401   0.864  -0.669  0.00  0.00    +0.000 A 
BRANCH   3  10
ATOM      9  C   UNL     1      -5.120  -0.504  -1.722  0.00  0.00    +0.000 C 
ATOM     10  C   UNL     1      -4.925   0.665  -0.768  0.00  0.00    +0.000 C 
ATOM     11  F   UNL     1      -6.003   0.686   0.073  0.00  0.00    +0.000 F 
ENDBRANCH   3  10
ENDBRANCH   2   6
ENDBRANCH   1   2
BRANCH   1  12
ATOM     12  C   UNL     1       1.804  -0.726   0.852  0.00  0.00    +0.000 C 
BRANCH  12  13
ATOM     13  C   UNL     1       3.019  -0.365   0.019  0.00  0.00    +0.000 A 
ATOM     14  C   UNL     1       4.244  -0.037   0.621  0.00  0.00    +0.000 A 
ATOM     15  C   UNL     1       5.348   0.316  -0.157  0.00  0.00    +0.000 A 
ATOM     16  C   UNL     1       5.242   0.348  -1.545  0.00  0.00    +0.000 A 
ATOM     17  C   UNL     1       4.033   0.025  -2.158  0.00  0.00    +0.000 A 
ATOM     18  C   UNL     1       2.927  -0.329  -1.381  0.00  0.00    +0.000 A 
ENDBRANCH  12  13
BRANCH  12  19
ATOM     19  N   UNL     1       2.123  -1.799   1.810  0.00  0.00    +0.000 NA
ATOM     20  H   UNL     1       2.361  -2.640   1.286  0.00  0.00    +0.000 HD
ATOM     21  H   UNL     1       1.275  -2.011   2.336  0.00  0.00    +0.000 HD
ENDBRANCH  12  19
ENDBRANCH   1  12
TORSDOF 6
