REMARK  Name = 
REMARK  1 active torsions:
REMARK  status: ('A' for Active; 'I' for Inactive)
REMARK    1  A    between atoms: C_1  and  C_2
REMARK                            x       y       z     vdW  Elec       q    Type
REMARK                         _______ _______ _______ _____ _____    ______ ____
ROOT
ATOM      1  C   UNL     1      -1.972  -1.525   2.005  0.00  0.00    +0.000 C 
ATOM      2  C   UNL     1      -1.658  -1.550   0.502  0.00  0.00    +0.000 C 
ATOM      3  C   UNL     1      -0.526  -2.547   0.050  0.00  0.00    +0.000 C 
ATOM      4  C   UNL     1       0.885  -2.076   0.238  0.00  0.00    +0.000 A 
ATOM      5  C   UNL     1       1.196  -1.317   1.284  0.00  0.00    +0.000 A 
ATOM      6  C   UNL     1       1.816  -0.099   0.816  0.00  0.00    +0.000 A 
ATOM      7  C   UNL     1       2.829  -0.154  -0.122  0.00  0.00    +0.000 A 
ATOM      8  C   UNL     1       2.936  -1.420  -0.887  0.00  0.00    +0.000 A 
ATOM      9  O   UNL     1       3.906  -1.683  -1.584  0.00  0.00    +0.000 OA
ATOM     10  O   UNL     1       1.768  -2.168  -0.881  0.00  0.00    +0.000 OA
ATOM     11  C   UNL     1       3.484   1.013  -0.521  0.00  0.00    +0.000 A 
ATOM     12  C   UNL     1       3.020   2.246  -0.047  0.00  0.00    +0.000 A 
ATOM     13  C   UNL     1       1.837   2.308   0.702  0.00  0.00    +0.000 A 
ATOM     14  C   UNL     1       1.190   1.123   1.047  0.00  0.00    +0.000 A 
ATOM     15  O   UNL     1      -0.152   1.096   1.432  0.00  0.00    +0.000 OA
ATOM     16  C   UNL     1      -1.024   1.033   0.340  0.00  0.00    +0.000 A 
ATOM     17  C   UNL     1      -1.283   2.267  -0.288  0.00  0.00    +0.000 A 
ATOM     18  C   UNL     1      -2.065   2.344  -1.437  0.00  0.00    +0.000 A 
ATOM     19  C   UNL     1      -2.613   1.187  -1.968  0.00  0.00    +0.000 A 
ATOM     20  C   UNL     1      -2.413  -0.037  -1.326  0.00  0.00    +0.000 A 
ATOM     21  C   UNL     1      -1.647  -0.150  -0.139  0.00  0.00    +0.000 A 
ENDROOT
TORSDOF 0
