REMARK  Name = 
REMARK  4 active torsions:
REMARK  status: ('A' for Active; 'I' for Inactive)
REMARK    1  A    between atoms: C_1  and  C_2
REMARK    2  A    between atoms: C_5  and  C_13
REMARK    3  A    between atoms: C_9  and  C_11
REMARK    4  A    between atoms: C_9  and  N_12
REMARK                            x       y       z     vdW  Elec       q    Type
REMARK                         _______ _______ _______ _____ _____    ______ ____
ROOT
ATOM      1  C   UNL     1      -1.773  -2.488  -0.363  0.00  0.00    +0.000 C 
ATOM      2  C   UNL     1      -1.002  -1.178  -0.076  0.00  0.00    +0.000 C 
ATOM      3  C   UNL     1      -1.329  -0.165  -1.185  0.00  0.00    +0.000 C 
ATOM      4  C   UNL     1      -0.895   1.273  -0.882  0.00  0.00    +0.000 C 
ATOM      5  C   UNL     1      -0.206   1.457   0.480  0.00  0.00    +0.000 C 
ATOM      6  C   UNL     1      -1.067   0.801   1.579  0.00  0.00    +0.000 C 
ATOM      7  C   UNL     1      -1.499  -0.630   1.277  0.00  0.00    +0.000 C 
ATOM      8  C   UNL     1       1.244   0.902   0.530  0.00  0.00    +0.000 C 
ATOM      9  C   UNL     1       1.569  -0.441  -0.154  0.00  0.00    +0.000 C 
ATOM     10  C   UNL     1       0.505  -1.544   0.013  0.00  0.00    +0.000 C 
ATOM     11  C   UNL     1       1.963  -0.247  -1.636  0.00  0.00    +0.000 C 
ATOM     12  C   UNL     1      -0.125   2.971   0.789  0.00  0.00    +0.000 C 
ENDROOT
BRANCH   9  13
ATOM     13  N   UNL     1       2.807  -0.950   0.488  0.00  0.00    +0.000 NA
ATOM     14  H   UNL     1       3.566  -0.282   0.358  0.00  0.00    +0.000 HD
ATOM     15  H   UNL     1       3.104  -1.814   0.035  0.00  0.00    +0.000 HD
ENDBRANCH   9  13
TORSDOF 1
