
     RDKit          3D

 36 37  0  0  0  0  0  0  0  0999 V2000
   -1.7727   -2.4882   -0.3631 C   0  0  0  0  0  0  0  0  0  0  0  0
   -1.0015   -1.1781   -0.0760 C   0  0  0  0  0  0  0  0  0  0  0  0
   -1.3289   -0.1654   -1.1852 C   0  0  0  0  0  0  0  0  0  0  0  0
   -0.8949    1.2727   -0.8816 C   0  0  0  0  0  0  0  0  0  0  0  0
   -0.2063    1.4572    0.4803 C   0  0  0  0  0  0  0  0  0  0  0  0
   -1.0672    0.8014    1.5789 C   0  0  0  0  0  0  0  0  0  0  0  0
   -1.4991   -0.6298    1.2768 C   0  0  0  0  0  0  0  0  0  0  0  0
    1.2436    0.9021    0.5297 C   0  0  0  0  0  0  0  0  0  0  0  0
    1.5691   -0.4409   -0.1544 C   0  0  0  0  0  0  0  0  0  0  0  0
    0.5053   -1.5444    0.0132 C   0  0  0  0  0  0  0  0  0  0  0  0
    1.9628   -0.2470   -1.6359 C   0  0  0  0  0  0  0  0  0  0  0  0
    2.8065   -0.9498    0.4876 N   0  0  0  0  0  0  0  0  0  0  0  0
   -0.1253    2.9710    0.7892 C   0  0  0  0  0  0  0  0  0  0  0  0
   -2.8550   -2.3180   -0.3916 H   0  0  0  0  0  0  0  0  0  0  0  0
   -1.5756   -3.2405    0.4091 H   0  0  0  0  0  0  0  0  0  0  0  0
   -1.4818   -2.9142   -1.3301 H   0  0  0  0  0  0  0  0  0  0  0  0
   -0.9150   -0.4970   -2.1443 H   0  0  0  0  0  0  0  0  0  0  0  0
   -2.4164   -0.1491   -1.3458 H   0  0  0  0  0  0  0  0  0  0  0  0
   -0.2636    1.6618   -1.6886 H   0  0  0  0  0  0  0  0  0  0  0  0
   -1.7987    1.8981   -0.9137 H   0  0  0  0  0  0  0  0  0  0  0  0
   -0.5456    0.8278    2.5445 H   0  0  0  0  0  0  0  0  0  0  0  0
   -1.9780    1.3973    1.7318 H   0  0  0  0  0  0  0  0  0  0  0  0
   -1.1835   -1.2861    2.0982 H   0  0  0  0  0  0  0  0  0  0  0  0
   -2.5977   -0.6561    1.2983 H   0  0  0  0  0  0  0  0  0  0  0  0
    1.5281    0.8408    1.5914 H   0  0  0  0  0  0  0  0  0  0  0  0
    1.9238    1.6600    0.1131 H   0  0  0  0  0  0  0  0  0  0  0  0
    0.6577   -2.0437    0.9826 H   0  0  0  0  0  0  0  0  0  0  0  0
    0.7204   -2.3280   -0.7287 H   0  0  0  0  0  0  0  0  0  0  0  0
    1.1509    0.1289   -2.2560 H   0  0  0  0  0  0  0  0  0  0  0  0
    2.7916    0.4647   -1.7385 H   0  0  0  0  0  0  0  0  0  0  0  0
    2.2919   -1.1910   -2.0880 H   0  0  0  0  0  0  0  0  0  0  0  0
    3.5660   -0.2819    0.3585 H   0  0  0  0  0  0  0  0  0  0  0  0
    3.1037   -1.8138    0.0351 H   0  0  0  0  0  0  0  0  0  0  0  0
    0.4538    3.5002    0.0238 H   0  0  0  0  0  0  0  0  0  0  0  0
    0.3533    3.1518    1.7584 H   0  0  0  0  0  0  0  0  0  0  0  0
   -1.1213    3.4273    0.8211 H   0  0  0  0  0  0  0  0  0  0  0  0
  1  2  1  0
  2  3  1  0
  3  4  1  0
  4  5  1  0
  5  6  1  0
  6  7  1  0
  5  8  1  0
  8  9  1  0
  9 10  1  0
  9 11  1  0
  9 12  1  0
  5 13  1  0
  7  2  1  0
 10  2  1  0
  1 14  1  0
  1 15  1  0
  1 16  1  0
  3 17  1  0
  3 18  1  0
  4 19  1  0
  4 20  1  0
  6 21  1  0
  6 22  1  0
  7 23  1  0
  7 24  1  0
  8 25  1  0
  8 26  1  0
 10 27  1  0
 10 28  1  0
 11 29  1  0
 11 30  1  0
 11 31  1  0
 12 32  1  0
 12 33  1  0
 13 34  1  0
 13 35  1  0
 13 36  1  0
M  END
$$$$
