REMARK  Name = 
REMARK  8 active torsions:
REMARK  status: ('A' for Active; 'I' for Inactive)
REMARK    1  A    between atoms: C_1  and  C_2
REMARK    2  A    between atoms: C_2  and  O_3
REMARK    3  A    between atoms: O_3  and  C_4
REMARK    4  A    between atoms: C_4  and  C_6
REMARK    5  A    between atoms: C_7  and  C_25
REMARK    6  A    between atoms: N_10  and  C_11
REMARK    7  A    between atoms: C_14  and  C_15
REMARK    8  A    between atoms: C_16  and  C_17
REMARK                            x       y       z     vdW  Elec       q    Type
REMARK                         _______ _______ _______ _____ _____    ______ ____
ROOT
ATOM      1  C   UNL     1       0.254  -0.026  -0.041  0.00  0.00    +0.000 A 
ATOM      2  C   UNL     1       1.390  -0.600  -0.480  0.00  0.00    +0.000 A 
ATOM      3  C   UNL     1       1.294  -1.701  -1.480  0.00  0.00    +0.000 A 
ATOM      4  O   UNL     1       1.863  -1.639  -2.566  0.00  0.00    +0.000 OA
ATOM      5  N   UNL     1       0.626  -2.821  -1.010  0.00  0.00    +0.000 N 
ATOM      6  C   UNL     1       1.159  -4.109  -1.405  0.00  0.00    +0.000 C 
ATOM      7  C   UNL     1      -0.674  -2.825  -0.522  0.00  0.00    +0.000 A 
ATOM      8  O   UNL     1      -1.201  -3.827  -0.038  0.00  0.00    +0.000 OA
ATOM      9  C   UNL     1      -1.520  -1.609  -0.770  0.00  0.00    +0.000 A 
ATOM     10  C   UNL     1      -2.889  -1.999  -1.279  0.00  0.00    +0.000 C 
ATOM     11  C   UNL     1      -1.090  -0.344  -0.545  0.00  0.00    +0.000 A 
ENDROOT
BRANCH  11  12
ATOM     12  C   UNL     1      -2.030   0.780  -0.824  0.00  0.00    +0.000 A 
ATOM     13  C   UNL     1      -1.861   1.490  -2.026  0.00  0.00    +0.000 A 
ATOM     14  C   UNL     1      -2.695   2.566  -2.337  0.00  0.00    +0.000 A 
ATOM     15  C   UNL     1      -3.699   2.944  -1.449  0.00  0.00    +0.000 A 
ATOM     16 CL   UNL     1      -4.725   4.269  -1.837  0.00  0.00    +0.000 Cl
ATOM     17  C   UNL     1      -3.880   2.259  -0.250  0.00  0.00    +0.000 A 
ATOM     18  C   UNL     1      -3.046   1.183   0.064  0.00  0.00    +0.000 A 
ATOM     19 CL   UNL     1      -3.316   0.376   1.569  0.00  0.00    +0.000 Cl
ENDBRANCH  11  12
BRANCH   2  20
ATOM     20  C   UNL     1       2.696  -0.227  -0.029  0.00  0.00    +0.000 A 
ATOM     21  C   UNL     1       3.901  -0.184  -0.727  0.00  0.00    +0.000 A 
ATOM     22  C   UNL     1       4.917   0.230   0.166  0.00  0.00    +0.000 A 
ATOM     23  C   UNL     1       4.298   0.414   1.373  0.00  0.00    +0.000 A 
ATOM     24  O   UNL     1       2.977   0.138   1.272  0.00  0.00    +0.000 OA
ENDBRANCH   2  20
BRANCH   1  25
ATOM     25  C   UNL     1       0.365   1.113   0.908  0.00  0.00    +0.000 C 
ATOM     26  O   UNL     1       0.618   2.259   0.574  0.00  0.00    +0.000 OA
BRANCH  25  27
ATOM     27  O   UNL     1       0.070   0.663   2.153  0.00  0.00    +0.000 OA
BRANCH  27  29
ATOM     28  C   UNL     1       1.418   1.906   3.742  0.00  0.00    +0.000 C 
ATOM     29  C   UNL     1       0.030   1.663   3.179  0.00  0.00    +0.000 C 
ENDBRANCH  27  29
ENDBRANCH  25  27
ENDBRANCH   1  25
TORSDOF 5
