
     RDKit          3D

 28 28  0  0  0  0  0  0  0  0999 V2000
   -4.3491   -0.5179    0.0640 C   0  0  0  0  0  0  0  0  0  0  0  0
   -3.3835    0.4888    0.6958 C   0  0  0  0  0  0  0  0  0  0  0  0
   -3.8152    1.9103    0.3312 C   0  0  0  0  0  0  0  0  0  0  0  0
   -2.0269    0.1863    0.2233 N   0  0  0  0  0  0  0  0  0  0  0  0
   -0.9916    0.9033    0.9640 C   0  0  0  0  0  0  0  0  0  0  0  0
    0.3307    0.4368    0.5295 C   0  0  0  0  0  0  0  0  0  0  0  0
    1.4121    0.0547    0.1715 C   0  0  0  0  0  0  0  0  0  0  0  0
    2.6947   -0.4024   -0.2654 C   0  0  0  0  0  0  0  0  0  0  0  0
    3.7432   -0.5291    0.6516 C   0  0  0  0  0  0  0  0  0  0  0  0
    4.9943   -0.9762    0.2220 C   0  0  0  0  0  0  0  0  0  0  0  0
    5.1859   -1.2923   -1.1189 C   0  0  0  0  0  0  0  0  0  0  0  0
    4.1508   -1.1700   -2.0395 C   0  0  0  0  0  0  0  0  0  0  0  0
    2.8992   -0.7231   -1.6116 C   0  0  0  0  0  0  0  0  0  0  0  0
    6.3864   -1.7212   -1.5297 F   0  0  0  0  0  0  0  0  0  0  0  0
   -4.3442   -0.4488   -1.0298 H   0  0  0  0  0  0  0  0  0  0  0  0
   -4.0846   -1.5449    0.3401 H   0  0  0  0  0  0  0  0  0  0  0  0
   -5.3739   -0.3390    0.4075 H   0  0  0  0  0  0  0  0  0  0  0  0
   -3.4378    0.3623    1.7842 H   0  0  0  0  0  0  0  0  0  0  0  0
   -3.7266    2.0915   -0.7459 H   0  0  0  0  0  0  0  0  0  0  0  0
   -4.8603    2.0801    0.6131 H   0  0  0  0  0  0  0  0  0  0  0  0
   -3.2149    2.6618    0.8534 H   0  0  0  0  0  0  0  0  0  0  0  0
   -1.8504   -0.8134    0.3235 H   0  0  0  0  0  0  0  0  0  0  0  0
   -1.0604    1.9809    0.7845 H   0  0  0  0  0  0  0  0  0  0  0  0
   -1.0974    0.7301    2.0412 H   0  0  0  0  0  0  0  0  0  0  0  0
    3.5913   -0.2813    1.6993 H   0  0  0  0  0  0  0  0  0  0  0  0
    5.8172   -1.0794    0.9217 H   0  0  0  0  0  0  0  0  0  0  0  0
    4.3235   -1.4221   -3.0807 H   0  0  0  0  0  0  0  0  0  0  0  0
    2.0874   -0.6260   -2.3290 H   0  0  0  0  0  0  0  0  0  0  0  0
  1  2  1  0
  2  3  1  0
  2  4  1  0
  4  5  1  0
  5  6  1  0
  6  7  3  0
  7  8  1  0
  8  9  2  0
  9 10  1  0
 10 11  2  0
 11 12  1  0
 12 13  2  0
 11 14  1  0
 13  8  1  0
  1 15  1  0
  1 16  1  0
  1 17  1  0
  2 18  1  0
  3 19  1  0
  3 20  1  0
  3 21  1  0
  4 22  1  0
  5 23  1  0
  5 24  1  0
  9 25  1  0
 10 26  1  0
 12 27  1  0
 13 28  1  0
M  END
$$$$
