REMARK  Name = 
REMARK  6 active torsions:
REMARK  status: ('A' for Active; 'I' for Inactive)
REMARK    1  A    between atoms: C_1  and  C_2
REMARK    2  A    between atoms: C_2  and  C_3
REMARK    3  A    between atoms: C_2  and  N_4
REMARK    4  A    between atoms: N_4  and  C_5
REMARK    5  A    between atoms: C_5  and  C_6
REMARK    6  A    between atoms: C_7  and  C_8
REMARK                            x       y       z     vdW  Elec       q    Type
REMARK                         _______ _______ _______ _____ _____    ______ ____
ROOT
ATOM      1  C   UNL     1       0.331   0.437   0.529  0.00  0.00    +0.000 C 
ATOM      2  C   UNL     1       1.412   0.055   0.172  0.00  0.00    +0.000 C 
ENDROOT
BRANCH   2   3
ATOM      3  C   UNL     1       2.695  -0.402  -0.265  0.00  0.00    +0.000 A 
ATOM      4  C   UNL     1       3.743  -0.529   0.652  0.00  0.00    +0.000 A 
ATOM      5  C   UNL     1       4.994  -0.976   0.222  0.00  0.00    +0.000 A 
ATOM      6  C   UNL     1       5.186  -1.292  -1.119  0.00  0.00    +0.000 A 
ATOM      7  C   UNL     1       4.151  -1.170  -2.039  0.00  0.00    +0.000 A 
ATOM      8  C   UNL     1       2.899  -0.723  -1.612  0.00  0.00    +0.000 A 
ATOM      9  F   UNL     1       6.386  -1.721  -1.530  0.00  0.00    +0.000 F 
ENDBRANCH   2   3
BRANCH   1  10
ATOM     10  C   UNL     1      -0.992   0.903   0.964  0.00  0.00    +0.000 C 
BRANCH  10  11
ATOM     11  N   UNL     1      -2.027   0.186   0.223  0.00  0.00    +0.000 NA
ATOM     12  H   UNL     1      -1.850  -0.813   0.324  0.00  0.00    +0.000 HD
BRANCH  11  14
ATOM     13  C   UNL     1      -4.349  -0.518   0.064  0.00  0.00    +0.000 C 
ATOM     14  C   UNL     1      -3.384   0.489   0.696  0.00  0.00    +0.000 C 
ATOM     15  C   UNL     1      -3.815   1.910   0.331  0.00  0.00    +0.000 C 
ENDBRANCH  11  14
ENDBRANCH  10  11
ENDBRANCH   1  10
TORSDOF 4
