REMARK  Name = 
REMARK  2 active torsions:
REMARK  status: ('A' for Active; 'I' for Inactive)
REMARK    1  A    between atoms: N_5  and  C_6
REMARK    2  A    between atoms: C_14  and  S_16
REMARK                            x       y       z     vdW  Elec       q    Type
REMARK                         _______ _______ _______ _____ _____    ______ ____
ROOT
ATOM      1  N   UNL     1       2.966   1.982  -1.526  0.00  0.00    +0.000 N 
ATOM      2  C   UNL     1       2.694   0.841  -0.799  0.00  0.00    +0.000 A 
ATOM      3  N   UNL     1       1.429   0.593  -0.505  0.00  0.00    +0.000 NA
ATOM      4  C   UNL     1       1.192  -0.507   0.199  0.00  0.00    +0.000 A 
ATOM      5  N   UNL     1      -0.098  -0.877   0.567  0.00  0.00    +0.000 N 
ATOM      6  N   UNL     1       2.149  -1.326   0.619  0.00  0.00    +0.000 NA
ATOM      7  C   UNL     1       3.383  -0.971   0.277  0.00  0.00    +0.000 A 
ATOM      8  N   UNL     1       3.717   0.103  -0.423  0.00  0.00    +0.000 NA
ATOM      9  H   UNL     1       2.233   2.667  -1.410  0.00  0.00    +0.000 HD
ATOM     10  H   UNL     1       3.917   2.287  -1.370  0.00  0.00    +0.000 HD
ATOM     11  H   UNL     1      -0.076  -1.725   1.119  0.00  0.00    +0.000 HD
ENDROOT
BRANCH   5  12
ATOM     12  C   UNL     1      -1.381  -0.361   0.322  0.00  0.00    +0.000 A 
ATOM     13  C   UNL     1      -1.618   0.758  -0.486  0.00  0.00    +0.000 A 
ATOM     14  C   UNL     1      -2.915   1.245  -0.694  0.00  0.00    +0.000 A 
ATOM     15  C   UNL     1      -4.005   0.623  -0.093  0.00  0.00    +0.000 A 
ATOM     16  C   UNL     1      -3.801  -0.489   0.718  0.00  0.00    +0.000 A 
ATOM     17  C   UNL     1      -2.504  -0.972   0.921  0.00  0.00    +0.000 A 
ATOM     18 CL   UNL     1      -2.310  -2.361   1.941  0.00  0.00    +0.000 Cl
ENDBRANCH   5  12
BRANCH   7  19
ATOM     19  S   UNL     1       4.691  -2.031   0.823  0.00  0.00    +0.000 S 
ATOM     20  H   UNL     1       3.865  -2.896   1.423  0.00  0.00    +0.000 HD
ENDBRANCH   7  19
TORSDOF 2
