
     RDKit          3D

 31 32  0  0  0  0  0  0  0  0999 V2000
   -4.2178    0.8884   -0.4603 C   0  0  0  0  0  0  0  0  0  0  0  0
   -3.7279    0.6763    0.9597 C   0  0  0  0  0  0  0  0  0  0  0  0
   -2.3452    0.2907    0.9516 O   0  0  0  0  0  0  0  0  0  0  0  0
   -2.0952   -1.0421    0.8208 C   0  0  0  0  0  0  0  0  0  0  0  0
   -2.9748   -1.8859    0.7009 O   0  0  0  0  0  0  0  0  0  0  0  0
   -0.7421   -1.3224    0.8234 N   0  0  0  0  0  0  0  0  0  0  0  0
   -0.2939   -2.6774    0.5604 C   0  0  0  0  0  0  0  0  0  0  0  0
    0.2475   -0.2510    0.8373 C   0  0  0  0  0  0  0  0  0  0  0  0
    0.3925    0.4460   -0.5312 C   0  0  0  0  0  0  0  0  0  0  0  0
    1.8497    0.7036   -0.5157 C   0  0  0  0  0  0  0  0  0  0  0  0
    2.6176    1.4814   -1.3638 C   0  0  0  0  0  0  0  0  0  0  0  0
    4.0000    1.5086   -1.1604 C   0  0  0  0  0  0  0  0  0  0  0  0
    4.5878    0.7550   -0.1302 C   0  0  0  0  0  0  0  0  0  0  0  0
    3.7990   -0.0327    0.7106 C   0  0  0  0  0  0  0  0  0  0  0  0
    2.4357   -0.0348    0.5001 C   0  0  0  0  0  0  0  0  0  0  0  0
    1.5443   -0.7665    1.2395 O   0  0  0  0  0  0  0  0  0  0  0  0
   -5.2527    1.2418   -0.4650 H   0  0  0  0  0  0  0  0  0  0  0  0
   -3.5910    1.6225   -0.9772 H   0  0  0  0  0  0  0  0  0  0  0  0
   -4.1627   -0.0396   -1.0381 H   0  0  0  0  0  0  0  0  0  0  0  0
   -3.7928    1.6178    1.5150 H   0  0  0  0  0  0  0  0  0  0  0  0
   -4.3452   -0.0545    1.4946 H   0  0  0  0  0  0  0  0  0  0  0  0
   -1.1290   -3.3816    0.5173 H   0  0  0  0  0  0  0  0  0  0  0  0
    0.3818   -2.9959    1.3592 H   0  0  0  0  0  0  0  0  0  0  0  0
    0.2302   -2.6990   -0.3997 H   0  0  0  0  0  0  0  0  0  0  0  0
   -0.0439    0.4850    1.5997 H   0  0  0  0  0  0  0  0  0  0  0  0
   -0.2073    1.3589   -0.5850 H   0  0  0  0  0  0  0  0  0  0  0  0
    0.1325   -0.2158   -1.3643 H   0  0  0  0  0  0  0  0  0  0  0  0
    2.1663    2.0508   -2.1700 H   0  0  0  0  0  0  0  0  0  0  0  0
    4.6299    2.1122   -1.8101 H   0  0  0  0  0  0  0  0  0  0  0  0
    5.6657    0.7829    0.0103 H   0  0  0  0  0  0  0  0  0  0  0  0
    4.2411   -0.6225    1.5056 H   0  0  0  0  0  0  0  0  0  0  0  0
  1  2  1  0
  2  3  1  0
  3  4  1  0
  4  5  2  0
  4  6  1  0
  6  7  1  0
  6  8  1  0
  8  9  1  0
  9 10  1  0
 10 11  2  0
 11 12  1  0
 12 13  2  0
 13 14  1  0
 14 15  2  0
 15 16  1  0
 16  8  1  0
 15 10  1  0
  1 17  1  0
  1 18  1  0
  1 19  1  0
  2 20  1  0
  2 21  1  0
  7 22  1  0
  7 23  1  0
  7 24  1  0
  8 25  1  0
  9 26  1  0
  9 27  1  0
 11 28  1  0
 12 29  1  0
 13 30  1  0
 14 31  1  0
M  END
$$$$
