REMARK  Name = 
REMARK  5 active torsions:
REMARK  status: ('A' for Active; 'I' for Inactive)
REMARK    1  A    between atoms: C_1  and  C_2
REMARK    2  A    between atoms: C_2  and  O_3
REMARK    3  A    between atoms: O_3  and  C_4
REMARK    4  A    between atoms: N_6  and  C_7
REMARK    5  A    between atoms: N_6  and  C_8
REMARK                            x       y       z     vdW  Elec       q    Type
REMARK                         _______ _______ _______ _____ _____    ______ ____
ROOT
ATOM      1  C   UNL     1       0.247  -0.251   0.837  0.00  0.00    +0.000 C 
ATOM      2  C   UNL     1       0.393   0.446  -0.531  0.00  0.00    +0.000 C 
ATOM      3  C   UNL     1       1.850   0.704  -0.516  0.00  0.00    +0.000 A 
ATOM      4  C   UNL     1       2.618   1.481  -1.364  0.00  0.00    +0.000 A 
ATOM      5  C   UNL     1       4.000   1.509  -1.160  0.00  0.00    +0.000 A 
ATOM      6  C   UNL     1       4.588   0.755  -0.130  0.00  0.00    +0.000 A 
ATOM      7  C   UNL     1       3.799  -0.033   0.711  0.00  0.00    +0.000 A 
ATOM      8  C   UNL     1       2.436  -0.035   0.500  0.00  0.00    +0.000 A 
ATOM      9  O   UNL     1       1.544  -0.766   1.240  0.00  0.00    +0.000 OA
ENDROOT
BRANCH   1  12
ATOM     10  C   UNL     1      -2.095  -1.042   0.821  0.00  0.00    +0.000 C 
ATOM     11  O   UNL     1      -2.975  -1.886   0.701  0.00  0.00    +0.000 OA
ATOM     12  N   UNL     1      -0.742  -1.322   0.823  0.00  0.00    +0.000 N 
ATOM     13  C   UNL     1      -0.294  -2.677   0.560  0.00  0.00    +0.000 C 
BRANCH  10  14
ATOM     14  O   UNL     1      -2.345   0.291   0.952  0.00  0.00    +0.000 OA
BRANCH  14  16
ATOM     15  C   UNL     1      -4.218   0.888  -0.460  0.00  0.00    +0.000 C 
ATOM     16  C   UNL     1      -3.728   0.676   0.960  0.00  0.00    +0.000 C 
ENDBRANCH  14  16
ENDBRANCH  10  14
ENDBRANCH   1  12
TORSDOF 3
