REMARK  Name = 
REMARK  6 active torsions:
REMARK  status: ('A' for Active; 'I' for Inactive)
REMARK    1  A    between atoms: C_1  and  C_2
REMARK    2  A    between atoms: C_2  and  C_3
REMARK    3  A    between atoms: C_2  and  N_4
REMARK    4  A    between atoms: N_4  and  C_5
REMARK    5  A    between atoms: C_5  and  C_6
REMARK    6  A    between atoms: C_7  and  C_8
REMARK                            x       y       z     vdW  Elec       q    Type
REMARK                         _______ _______ _______ _____ _____    ______ ____
ROOT
ATOM      1  C   UNL     1       0.118  -0.529  -0.676  0.00  0.00    +0.000 C 
ATOM      2  C   UNL     1       1.307  -0.392  -0.573  0.00  0.00    +0.000 C 
ENDROOT
BRANCH   2   3
ATOM      3  C   UNL     1       2.721  -0.224  -0.441  0.00  0.00    +0.000 A 
ATOM      4  C   UNL     1       3.553  -0.383  -1.552  0.00  0.00    +0.000 A 
ATOM      5  C   UNL     1       4.934  -0.218  -1.420  0.00  0.00    +0.000 A 
ATOM      6  C   UNL     1       5.483   0.106  -0.179  0.00  0.00    +0.000 A 
ATOM      7  C   UNL     1       4.653   0.266   0.931  0.00  0.00    +0.000 A 
ATOM      8  C   UNL     1       3.273   0.101   0.800  0.00  0.00    +0.000 A 
ENDBRANCH   2   3
BRANCH   1   9
ATOM      9  C   UNL     1      -1.335  -0.697  -0.802  0.00  0.00    +0.000 C 
BRANCH   9  10
ATOM     10  N   UNL     1      -2.013   0.277   0.050  0.00  0.00    +0.000 NA
ATOM     11  H   UNL     1      -1.641   1.201  -0.171  0.00  0.00    +0.000 HD
BRANCH  10  13
ATOM     12  C   UNL     1      -4.124  -0.981   0.429  0.00  0.00    +0.000 C 
ATOM     13  C   UNL     1      -3.470   0.283  -0.132  0.00  0.00    +0.000 C 
ATOM     14  C   UNL     1      -4.039   1.514   0.579  0.00  0.00    +0.000 C 
ENDBRANCH  10  13
ENDBRANCH   9  10
ENDBRANCH   1   9
TORSDOF 4
