REMARK  Name = 
REMARK  2 active torsions:
REMARK  status: ('A' for Active; 'I' for Inactive)
REMARK    1  A    between atoms: C_8  and  N_9
REMARK    2  A    between atoms: N_9  and  C_10
REMARK                            x       y       z     vdW  Elec       q    Type
REMARK                         _______ _______ _______ _____ _____    ______ ____
ROOT
ATOM      1 CL   UNL     1       2.264   3.583   2.239  0.00  0.00    +0.000 Cl
ATOM      2  C   UNL     1       2.367   2.193   1.230  0.00  0.00    +0.000 A 
ATOM      3  C   UNL     1       3.433   2.056   0.350  0.00  0.00    +0.000 A 
ATOM      4  C   UNL     1       3.519   0.919  -0.451  0.00  0.00    +0.000 A 
ATOM      5  C   UNL     1       2.539  -0.086  -0.381  0.00  0.00    +0.000 A 
ATOM      6  C   UNL     1       1.428   0.072   0.474  0.00  0.00    +0.000 A 
ATOM      7  C   UNL     1       1.379   1.211   1.302  0.00  0.00    +0.000 A 
ATOM      8  C   UNL     1       0.336  -0.998   0.566  0.00  0.00    +0.000 C 
ATOM      9  C   UNL     1       0.471  -2.120  -0.505  0.00  0.00    +0.000 C 
ATOM     10 CL   UNL     1      -0.446  -3.589  -0.021  0.00  0.00    +0.000 Cl
ATOM     11  C   UNL     1       1.930  -2.505  -0.725  0.00  0.00    +0.000 C 
ATOM     12  C   UNL     1       2.696  -1.302  -1.259  0.00  0.00    +0.000 C 
ENDROOT
BRANCH   8  13
ATOM     13  N   UNL     1      -1.033  -0.438   0.623  0.00  0.00    +0.000 NA
ATOM     14  H   UNL     1      -1.139   0.122   1.464  0.00  0.00    +0.000 HD
BRANCH  13  15
ATOM     15  C   UNL     1      -1.454   0.312  -0.567  0.00  0.00    +0.000 C 
ATOM     16  C   UNL     1      -2.168   1.612  -0.176  0.00  0.00    +0.000 C 
ATOM     17  C   UNL     1      -3.573   1.187   0.246  0.00  0.00    +0.000 C 
ATOM     18  C   UNL     1      -3.840  -0.136  -0.472  0.00  0.00    +0.000 C 
ATOM     19  C   UNL     1      -2.583  -0.428  -1.289  0.00  0.00    +0.000 C 
ENDBRANCH  13  15
ENDBRANCH   8  13
TORSDOF 2
